version 2
run Dest4_Channel4_Lambda100us-0-20101224-03:58:41-4256
attr configname Dest4_Channel4_Lambda100us
attr datetime 20101224-03:58:41
attr experiment Dest4_Channel4_Lambda100us
attr inifile C:/work/home/OMNeT++Projects/omnetpp_obs/simulations/test/twocores/omnetpp.ini
attr iterationvars ""
attr iterationvars2 $repetition=0
attr measurement ""
attr network Twocores
attr processid 4256
attr repetition 0
attr replication #0
attr resultdir results
attr runnumber 0
attr seedset 0

scalar Twocores.edge0.disassembler 	numBursts 	0
scalar Twocores.edge0.disassembler 	numBits 	0
scalar Twocores.edge0.disassembler 	packetsPreBurst 	0
scalar Twocores.edge0.disassembler 	burstsPerSec 	0
scalar Twocores.edge0.sink 	numPackets 	0
scalar Twocores.edge0.sink 	numBits 	0
scalar Twocores.edge0.sink 	throughput 	0
scalar Twocores.edge0.sink 	packetsPerSec 	0
scalar Twocores.edge1.disassembler 	numBursts 	1116
scalar Twocores.edge1.disassembler 	numBits 	24950000
scalar Twocores.edge1.disassembler 	packetsPreBurst 	2.2356630824373
scalar Twocores.edge1.disassembler 	burstsPerSec 	556.01143002426
scalar Twocores.edge1.sink 	numPackets 	2495
scalar Twocores.edge1.sink 	numBits 	24950000
scalar Twocores.edge1.sink 	throughput 	12430542.275184
scalar Twocores.edge1.sink 	packetsPerSec 	1243.0542275184
