version 2
run Ansync_Dest4_Channel4_Lambda1us-0-20101223-16:30:49-2268
attr configname Ansync_Dest4_Channel4_Lambda1us
attr datetime 20101223-16:30:49
attr experiment Ansync_Dest4_Channel4_Lambda1us
attr inifile C:/work/home/OMNeT++Projects/omnetpp_obs/simulations/test/twoedges/omnetpp.ini
attr iterationvars ""
attr iterationvars2 $repetition=0
attr measurement ""
attr network TwoEdges
attr processid 2268
attr repetition 0
attr replication #0
attr resultdir results
attr runnumber 0
attr seedset 0

scalar TwoEdges.edge0.disassembler 	numBursts 	0
scalar TwoEdges.edge0.disassembler 	numBits 	0
scalar TwoEdges.edge0.disassembler 	packetsPreBurst 	0
scalar TwoEdges.edge0.disassembler 	burstsPerSec 	0
scalar TwoEdges.edge0.sink 	numPackets 	0
scalar TwoEdges.edge0.sink 	numBits 	0
scalar TwoEdges.edge0.sink 	throughput 	0
scalar TwoEdges.edge0.sink 	packetsPerSec 	0
scalar TwoEdges.edge1.disassembler 	numBursts 	20
scalar TwoEdges.edge1.disassembler 	numBits 	24950000
scalar TwoEdges.edge1.disassembler 	packetsPreBurst 	124.75
scalar TwoEdges.edge1.disassembler 	burstsPerSec 	19.790122726161
scalar TwoEdges.edge1.sink 	numPackets 	2495
scalar TwoEdges.edge1.sink 	numBits 	24950000
scalar TwoEdges.edge1.sink 	throughput 	24688178.100886
scalar TwoEdges.edge1.sink 	packetsPerSec 	2468.8178100886
