version 2
run Dest4_Channel4_Lambda100us-0-20101224-02:57:48-4844
attr configname Dest4_Channel4_Lambda100us
attr datetime 20101224-02:57:48
attr experiment Dest4_Channel4_Lambda100us
attr inifile C:/work/home/OMNeT++Projects/omnetpp_obs/simulations/test/twoedges/omnetpp.ini
attr iterationvars ""
attr iterationvars2 $repetition=0
attr measurement ""
attr network TwoEdges
attr processid 4844
attr repetition 0
attr replication #0
attr resultdir results
attr runnumber 0
attr seedset 0

scalar TwoEdges.edge0.disassembler 	numBursts 	0
scalar TwoEdges.edge0.disassembler 	numBits 	0
scalar TwoEdges.edge0.disassembler 	packetsPreBurst 	0
scalar TwoEdges.edge0.disassembler 	burstsPerSec 	0
scalar TwoEdges.edge0.sink 	numPackets 	0
scalar TwoEdges.edge0.sink 	numBits 	0
scalar TwoEdges.edge0.sink 	throughput 	0
scalar TwoEdges.edge0.sink 	packetsPerSec 	0
scalar TwoEdges.edge1.disassembler 	numBursts 	1116
scalar TwoEdges.edge1.disassembler 	numBits 	24950000
scalar TwoEdges.edge1.disassembler 	packetsPreBurst 	2.2356630824373
scalar TwoEdges.edge1.disassembler 	burstsPerSec 	556.01226107042
scalar TwoEdges.edge1.sink 	numPackets 	2495
scalar TwoEdges.edge1.sink 	numBits 	24950000
scalar TwoEdges.edge1.sink 	throughput 	12430560.854576
scalar TwoEdges.edge1.sink 	packetsPerSec 	1243.0560854576
