version 2
run Dest4_Channel4_Lambda100us_100packets-0-20101224-04:36:28-4068
attr configname Dest4_Channel4_Lambda100us_100packets
attr datetime 20101224-04:36:28
attr experiment Dest4_Channel4_Lambda100us_100packets
attr inifile C:/work/home/OMNeT++Projects/omnetpp_obs/simulations/test/syncnet/omnetpp.ini
attr iterationvars ""
attr iterationvars2 $repetition=0
attr measurement ""
attr network Syncnet
attr processid 4068
attr repetition 0
attr replication #0
attr resultdir results
attr runnumber 0
attr seedset 0

scalar Syncnet.edge0.disassembler 	numBursts 	0
scalar Syncnet.edge0.disassembler 	numBits 	0
scalar Syncnet.edge0.disassembler 	packetsPreBurst 	0
scalar Syncnet.edge0.disassembler 	burstsPerSec 	0
scalar Syncnet.edge0.sink 	numPackets 	0
scalar Syncnet.edge0.sink 	numBits 	0
scalar Syncnet.edge0.sink 	throughput 	0
scalar Syncnet.edge0.sink 	packetsPerSec 	0
scalar Syncnet.edge1.disassembler 	numBursts 	10
scalar Syncnet.edge1.disassembler 	numBits 	220000
scalar Syncnet.edge1.disassembler 	packetsPreBurst 	2.2
scalar Syncnet.edge1.disassembler 	burstsPerSec 	885.69006279456
scalar Syncnet.edge1.sink 	numPackets 	22
scalar Syncnet.edge1.sink 	numBits 	220000
scalar Syncnet.edge1.sink 	throughput 	19485181.38148
scalar Syncnet.edge1.sink 	packetsPerSec 	1948.518138148
scalar Syncnet.edge2.disassembler 	numBursts 	12
scalar Syncnet.edge2.disassembler 	numBits 	240000
scalar Syncnet.edge2.disassembler 	packetsPreBurst 	2
scalar Syncnet.edge2.disassembler 	burstsPerSec 	1094.9335322461
scalar Syncnet.edge2.sink 	numPackets 	24
scalar Syncnet.edge2.sink 	numBits 	240000
scalar Syncnet.edge2.sink 	throughput 	21898670.644921
scalar Syncnet.edge2.sink 	packetsPerSec 	2189.8670644921
scalar Syncnet.edge3.disassembler 	numBursts 	11
scalar Syncnet.edge3.disassembler 	numBits 	220000
scalar Syncnet.edge3.disassembler 	packetsPreBurst 	2
scalar Syncnet.edge3.disassembler 	burstsPerSec 	912.1642699704
scalar Syncnet.edge3.sink 	numPackets 	22
scalar Syncnet.edge3.sink 	numBits 	220000
scalar Syncnet.edge3.sink 	throughput 	18243285.399408
scalar Syncnet.edge3.sink 	packetsPerSec 	1824.3285399408
scalar Syncnet.edge4.disassembler 	numBursts 	13
scalar Syncnet.edge4.disassembler 	numBits 	320000
scalar Syncnet.edge4.disassembler 	packetsPreBurst 	2.4615384615385
scalar Syncnet.edge4.disassembler 	burstsPerSec 	1082.5654893885
scalar Syncnet.edge4.sink 	numPackets 	32
scalar Syncnet.edge4.sink 	numBits 	320000
scalar Syncnet.edge4.sink 	throughput 	26647765.892641
scalar Syncnet.edge4.sink 	packetsPerSec 	2664.7765892641
