version 2
run Sim01-0-20101224-09:52:40-4312
attr configname Sim01
attr datetime 20101224-09:52:40
attr experiment Sim01
attr inifile C:/work/home/OMNeT++Projects/omnetpp_obs/simulations/test/syncnet/omnetpp.ini
attr iterationvars ""
attr iterationvars2 $repetition=0
attr measurement ""
attr network Syncnet
attr processid 4312
attr repetition 0
attr replication #0
attr resultdir results
attr runnumber 0
attr seedset 0

scalar Syncnet.edge0.disassembler 	numBursts 	346
scalar Syncnet.edge0.disassembler 	numBits 	438040000
scalar Syncnet.edge0.disassembler 	packetsPreBurst 	126.60115606936
scalar Syncnet.edge0.disassembler 	burstsPerSec 	7775.2808988764
scalar Syncnet.edge0.sink 	numPackets 	43804
scalar Syncnet.edge0.sink 	numBits 	438040000
scalar Syncnet.edge0.sink 	throughput 	9843595505.618
scalar Syncnet.edge0.sink 	packetsPerSec 	984359.5505618
scalar Syncnet.edge1.disassembler 	numBursts 	347
scalar Syncnet.edge1.disassembler 	numBits 	437970000
scalar Syncnet.edge1.disassembler 	packetsPreBurst 	126.21613832853
scalar Syncnet.edge1.disassembler 	burstsPerSec 	7822.4699768018
scalar Syncnet.edge1.sink 	numPackets 	43797
scalar Syncnet.edge1.sink 	numBits 	437970000
scalar Syncnet.edge1.sink 	throughput 	9873219526.628
scalar Syncnet.edge1.sink 	packetsPerSec 	987321.9526628
scalar Syncnet.edge2.disassembler 	numBursts 	348
scalar Syncnet.edge2.disassembler 	numBits 	438240000
scalar Syncnet.edge2.disassembler 	packetsPreBurst 	125.93103448276
scalar Syncnet.edge2.disassembler 	burstsPerSec 	7820.2247191011
scalar Syncnet.edge2.sink 	numPackets 	43824
scalar Syncnet.edge2.sink 	numBits 	438240000
scalar Syncnet.edge2.sink 	throughput 	9848089887.6404
scalar Syncnet.edge2.sink 	packetsPerSec 	984808.98876404
scalar Syncnet.edge3.disassembler 	numBursts 	346
scalar Syncnet.edge3.disassembler 	numBits 	434630000
scalar Syncnet.edge3.disassembler 	packetsPreBurst 	125.61560693642
scalar Syncnet.edge3.disassembler 	burstsPerSec 	7796.6115279902
scalar Syncnet.edge3.sink 	numPackets 	43463
scalar Syncnet.edge3.sink 	numBits 	434630000
scalar Syncnet.edge3.sink 	throughput 	9793760891.3594
scalar Syncnet.edge3.sink 	packetsPerSec 	979376.08913594
scalar Syncnet.edge4.disassembler 	numBursts 	341
scalar Syncnet.edge4.disassembler 	numBits 	430270000
scalar Syncnet.edge4.disassembler 	packetsPreBurst 	126.1788856305
scalar Syncnet.edge4.disassembler 	burstsPerSec 	7662.9213483146
scalar Syncnet.edge4.sink 	numPackets 	43027
scalar Syncnet.edge4.sink 	numBits 	430270000
scalar Syncnet.edge4.sink 	throughput 	9668988764.0449
scalar Syncnet.edge4.sink 	packetsPerSec 	966898.87640449
