version 2
run Sim1c-0-20101226-13:21:07-2768
attr configname Sim1c
attr datetime 20101226-13:21:07
attr experiment Sim1c
attr inifile C:/work/home/OMNeT++Projects/omnetpp_obs/simulations/test/syncnet/omnetpp.ini
attr iterationvars ""
attr iterationvars2 $repetition=0
attr measurement ""
attr network Syncnet
attr processid 2768
attr repetition 0
attr replication #0
attr resultdir results
attr runnumber 0
attr seedset 0

scalar Syncnet.edge0.disassembler 	numBursts 	79372
scalar Syncnet.edge0.disassembler 	numBits 	99927360000
scalar Syncnet.edge0.disassembler 	packetsPreBurst 	125.89749533841
scalar Syncnet.edge0.disassembler 	burstsPerSec 	7932.4405356786
scalar Syncnet.edge0.sink 	numPackets 	9992736
scalar Syncnet.edge0.sink 	numBits 	99927360000
scalar Syncnet.edge0.sink 	throughput 	9986743953.6278
scalar Syncnet.edge0.sink 	packetsPerSec 	998674.39536278
scalar Syncnet.edge1.disassembler 	numBursts 	79376
scalar Syncnet.edge1.disassembler 	numBits 	100033870000
scalar Syncnet.edge1.disassembler 	packetsPreBurst 	126.02533511389
scalar Syncnet.edge1.disassembler 	burstsPerSec 	7932.8402958225
scalar Syncnet.edge1.sink 	numPackets 	10003387
scalar Syncnet.edge1.sink 	numBits 	100033870000
scalar Syncnet.edge1.sink 	throughput 	9997388566.8599
scalar Syncnet.edge1.sink 	packetsPerSec 	999738.85668599
scalar Syncnet.edge2.disassembler 	numBursts 	79385
scalar Syncnet.edge2.disassembler 	numBits 	100027350000
scalar Syncnet.edge2.disassembler 	packetsPreBurst 	126.00283428859
scalar Syncnet.edge2.disassembler 	burstsPerSec 	7933.7397561463
scalar Syncnet.edge2.sink 	numPackets 	10002735
scalar Syncnet.edge2.sink 	numBits 	100027350000
scalar Syncnet.edge2.sink 	throughput 	9996736957.8253
scalar Syncnet.edge2.sink 	packetsPerSec 	999673.69578253
scalar Syncnet.edge3.disassembler 	numBursts 	79381
scalar Syncnet.edge3.disassembler 	numBits 	99927240000
scalar Syncnet.edge3.disassembler 	packetsPreBurst 	125.88307025611
scalar Syncnet.edge3.disassembler 	burstsPerSec 	7932.9435866687
scalar Syncnet.edge3.sink 	numPackets 	9992724
scalar Syncnet.edge3.sink 	numBits 	99927240000
scalar Syncnet.edge3.sink 	throughput 	9986232948.5834
scalar Syncnet.edge3.sink 	packetsPerSec 	998623.29485834
scalar Syncnet.edge4.disassembler 	numBursts 	79390
scalar Syncnet.edge4.disassembler 	numBits 	100084180000
scalar Syncnet.edge4.disassembler 	packetsPreBurst 	126.06648192468
scalar Syncnet.edge4.disassembler 	burstsPerSec 	7934.2394563262
scalar Syncnet.edge4.sink 	numPackets 	10008418
scalar Syncnet.edge4.sink 	numBits 	100084180000
scalar Syncnet.edge4.sink 	throughput 	10002416550.07
scalar Syncnet.edge4.sink 	packetsPerSec 	1000241.655007
