version 2
run Test2_HighTraffic-0-20101224-04:55:06-3680
attr configname Test2_HighTraffic
attr datetime 20101224-04:55:06
attr experiment Test2_HighTraffic
attr inifile C:/work/home/OMNeT++Projects/omnetpp_obs/simulations/test/syncnet/omnetpp.ini
attr iterationvars ""
attr iterationvars2 $repetition=0
attr measurement ""
attr network Syncnet
attr processid 3680
attr repetition 0
attr replication #0
attr resultdir results
attr runnumber 0
attr seedset 0

scalar Syncnet.edge0.disassembler 	numBursts 	0
scalar Syncnet.edge0.disassembler 	numBits 	0
scalar Syncnet.edge0.disassembler 	packetsPreBurst 	0
scalar Syncnet.edge0.disassembler 	burstsPerSec 	0
scalar Syncnet.edge0.sink 	numPackets 	0
scalar Syncnet.edge0.sink 	numBits 	0
scalar Syncnet.edge0.sink 	throughput 	0
scalar Syncnet.edge0.sink 	packetsPerSec 	0
scalar Syncnet.edge1.disassembler 	numBursts 	579
scalar Syncnet.edge1.disassembler 	numBits 	246120000
scalar Syncnet.edge1.disassembler 	packetsPreBurst 	42.507772020725
scalar Syncnet.edge1.disassembler 	burstsPerSec 	1927.7955506867
scalar Syncnet.edge1.sink 	numPackets 	24612
scalar Syncnet.edge1.sink 	numBits 	246120000
scalar Syncnet.edge1.sink 	throughput 	819462937.7116
scalar Syncnet.edge1.sink 	packetsPerSec 	81946.29377116
scalar Syncnet.edge2.disassembler 	numBursts 	581
scalar Syncnet.edge2.disassembler 	numBits 	247140000
scalar Syncnet.edge2.disassembler 	packetsPreBurst 	42.537005163511
scalar Syncnet.edge2.disassembler 	burstsPerSec 	1934.6274023038
scalar Syncnet.edge2.sink 	numPackets 	24714
scalar Syncnet.edge2.sink 	numBits 	247140000
scalar Syncnet.edge2.sink 	throughput 	822932558.01266
scalar Syncnet.edge2.sink 	packetsPerSec 	82293.255801266
scalar Syncnet.edge3.disassembler 	numBursts 	584
scalar Syncnet.edge3.disassembler 	numBits 	248600000
scalar Syncnet.edge3.disassembler 	packetsPreBurst 	42.568493150685
scalar Syncnet.edge3.disassembler 	burstsPerSec 	1942.7005278383
scalar Syncnet.edge3.sink 	numPackets 	24860
scalar Syncnet.edge3.sink 	numBits 	248600000
scalar Syncnet.edge3.sink 	throughput 	826978341.13117
scalar Syncnet.edge3.sink 	packetsPerSec 	82697.834113117
scalar Syncnet.edge4.disassembler 	numBursts 	583
scalar Syncnet.edge4.disassembler 	numBits 	250670000
scalar Syncnet.edge4.disassembler 	packetsPreBurst 	42.996569468268
scalar Syncnet.edge4.disassembler 	burstsPerSec 	1939.6649929996
scalar Syncnet.edge4.sink 	numPackets 	25067
scalar Syncnet.edge4.sink 	numBits 	250670000
scalar Syncnet.edge4.sink 	throughput 	833989406.16675
scalar Syncnet.edge4.sink 	packetsPerSec 	83398.940616675
